108
 ---
   C    0.0000000    0.0000000    0.0000000
   C    0.0000000    1.8075000    1.8075000
   C    1.8075000    0.0000000    1.8075000
   C    1.8075000    1.8075000    0.0000000
   C    3.6150000    0.0000000    0.0000000
   C    3.6150000    1.8075000    1.8075000
   C    5.4225000    0.0000000    1.8075000
   C    5.4225000    1.8075000    0.0000000
   C    7.2300000    0.0000000    0.0000000
   C    7.2300000    1.8075000    1.8075000
   C    9.0375000    0.0000000    1.8075000
   C    9.0375000    1.8075000    0.0000000
   C    0.0000000    3.6150000    0.0000000
   C    0.0000000    5.4225000    1.8075000
   C    1.8075000    3.6150000    1.8075000
   C    1.8075000    5.4225000    0.0000000
   C    3.6150000    3.6150000    0.0000000
   C    3.6150000    5.4225000    1.8075000
   C    5.4225000    3.6150000    1.8075000
   C    5.4225000    5.4225000    0.0000000
   C    7.2300000    3.6150000    0.0000000
   C    7.2300000    5.4225000    1.8075000
   C    9.0375000    3.6150000    1.8075000
   C    9.0375000    5.4225000    0.0000000
   C    0.0000000    7.2300000    0.0000000
   C    0.0000000    9.0375000    1.8075000
   C    1.8075000    7.2300000    1.8075000
   C    1.8075000    9.0375000    0.0000000
   C    3.6150000    7.2300000    0.0000000
   C    3.6150000    9.0375000    1.8075000
   C    5.4225000    7.2300000    1.8075000
   C    5.4225000    9.0375000    0.0000000
   C    7.2300000    7.2300000    0.0000000
   C    7.2300000    9.0375000    1.8075000
   C    9.0375000    7.2300000    1.8075000
   C    9.0375000    9.0375000    0.0000000
   C    0.0000000    0.0000000    3.6150000
   C    0.0000000    1.8075000    5.4225000
   C    1.8075000    0.0000000    5.4225000
   C    1.8075000    1.8075000    3.6150000
   C    3.6150000    0.0000000    3.6150000
   C    3.6150000    1.8075000    5.4225000
   C    5.4225000    0.0000000    5.4225000
   C    5.4225000    1.8075000    3.6150000
   C    7.2300000    0.0000000    3.6150000
   C    7.2300000    1.8075000    5.4225000
   C    9.0375000    0.0000000    5.4225000
   C    9.0375000    1.8075000    3.6150000
   C    0.0000000    3.6150000    3.6150000
   C    0.0000000    5.4225000    5.4225000
   C    1.8075000    3.6150000    5.4225000
   C    1.8075000    5.4225000    3.6150000
   C    3.6150000    3.6150000    3.6150000
   C    3.6150000    5.4225000    5.4225000
   C    5.4225000    3.6150000    5.4225000
   C    5.4225000    5.4225000    3.6150000
   C    7.2300000    3.6150000    3.6150000
   C    7.2300000    5.4225000    5.4225000
   C    9.0375000    3.6150000    5.4225000
   C    9.0375000    5.4225000    3.6150000
   C    0.0000000    7.2300000    3.6150000
   C    0.0000000    9.0375000    5.4225000
   C    1.8075000    7.2300000    5.4225000
   C    1.8075000    9.0375000    3.6150000
   C    3.6150000    7.2300000    3.6150000
   C    3.6150000    9.0375000    5.4225000
   C    5.4225000    7.2300000    5.4225000
   C    5.4225000    9.0375000    3.6150000
   C    7.2300000    7.2300000    3.6150000
   C    7.2300000    9.0375000    5.4225000
   C    9.0375000    7.2300000    5.4225000
   C    9.0375000    9.0375000    3.6150000
   C    0.0000000    0.0000000    7.2300000
   C    0.0000000    1.8075000    9.0375000
   C    1.8075000    0.0000000    9.0375000
   C    1.8075000    1.8075000    7.2300000
   C    3.6150000    0.0000000    7.2300000
   C    3.6150000    1.8075000    9.0375000
   C    5.4225000    0.0000000    9.0375000
   C    5.4225000    1.8075000    7.2300000
   C    7.2300000    0.0000000    7.2300000
   C    7.2300000    1.8075000    9.0375000
   C    9.0375000    0.0000000    9.0375000
   C    9.0375000    1.8075000    7.2300000
   C    0.0000000    3.6150000    7.2300000
   C    0.0000000    5.4225000    9.0375000
   C    1.8075000    3.6150000    9.0375000
   C    1.8075000    5.4225000    7.2300000
   C    3.6150000    3.6150000    7.2300000
   C    3.6150000    5.4225000    9.0375000
   C    5.4225000    3.6150000    9.0375000
   C    5.4225000    5.4225000    7.2300000
   C    7.2300000    3.6150000    7.2300000
   C    7.2300000    5.4225000    9.0375000
   C    9.0375000    3.6150000    9.0375000
   C    9.0375000    5.4225000    7.2300000
   C    0.0000000    7.2300000    7.2300000
   C    0.0000000    9.0375000    9.0375000
   C    1.8075000    7.2300000    9.0375000
   C    1.8075000    9.0375000    7.2300000
   C    3.6150000    7.2300000    7.2300000
   C    3.6150000    9.0375000    9.0375000
   C    5.4225000    7.2300000    9.0375000
   C    5.4225000    9.0375000    7.2300000
   C    7.2300000    7.2300000    7.2300000
   C    7.2300000    9.0375000    9.0375000
   C    9.0375000    7.2300000    9.0375000
   C    9.0375000    9.0375000    7.2300000
